Version 4
SHEET 1 880 680
WIRE 400 192 16 192
WIRE 400 208 400 192
WIRE 400 320 400 288
WIRE 352 336 144 336
WIRE 16 432 16 192
WIRE 144 432 144 336
WIRE 400 432 400 416
WIRE 16 544 16 512
WIRE 144 544 144 512
WIRE 400 544 400 512
FLAG 400 544 0
FLAG 144 544 0
FLAG 16 544 0
SYMBOL voltage 400 416 R0
SYMATTR InstName V1
SYMATTR Value 5.5V
SYMBOL res 384 192 R0
SYMATTR InstName R1
SYMATTR Value 100
SYMBOL voltage 144 416 R0
SYMATTR InstName V2
SYMATTR Value 3V
SYMBOL pmos 352 416 M180
SYMATTR InstName M1
SYMATTR Value AO6407
SYMBOL voltage 16 416 R0
SYMATTR InstName V3
SYMATTR Value 4.3V
TEXT 504 576 Left 2 !.dc V1 0 4.3V
