Version 4
SHEET 1 956 680
WIRE 672 96 432 96
WIRE 432 128 432 96
WIRE 48 176 -32 176
WIRE 368 176 128 176
WIRE -32 224 -32 176
WIRE -32 320 -32 304
WIRE 432 320 432 224
WIRE 512 320 432 320
WIRE 608 320 592 320
WIRE 432 352 432 320
WIRE 672 352 672 96
WIRE 432 464 432 432
WIRE 608 464 608 320
WIRE 608 464 432 464
WIRE 672 464 672 432
WIRE 672 464 608 464
WIRE 672 480 672 464
FLAG 672 480 0
FLAG -32 320 0
SYMBOL res 144 160 R90
WINDOW 0 0 56 VBottom 2
WINDOW 3 32 56 VTop 2
SYMATTR InstName R1
SYMATTR Value 100k
SYMBOL res 608 304 R90
WINDOW 0 0 56 VBottom 2
WINDOW 3 32 56 VTop 2
SYMATTR InstName R2
SYMATTR Value 4.7Meg
SYMBOL voltage 672 336 R0
SYMATTR InstName V1
SYMATTR Value 3.3V
SYMBOL voltage -32 208 R0
SYMATTR InstName V2
SYMATTR Value PULSE(3.3V 0V 1m 10n 10n 1m 2m 1)
SYMBOL res 448 448 R180
WINDOW 0 36 76 Left 0
WINDOW 3 36 40 Left 0
SYMATTR InstName R3
SYMATTR Value 100k
SYMBOL pnp 368 224 M180
SYMATTR InstName Q1
SYMATTR Value 2N3906
TEXT 768 392 Left 2 !.tran 0 3m 0 10n
