Version 4
SHEET 1 880 680
WIRE 672 256 256 256
WIRE 256 320 256 256
WIRE 336 320 256 320
WIRE 496 320 416 320
WIRE 512 320 496 320
WIRE 672 320 672 256
WIRE 672 320 592 320
WIRE 496 352 496 320
WIRE 672 352 672 320
WIRE 336 400 256 400
WIRE 432 400 416 400
WIRE 256 448 256 400
WIRE 496 464 496 448
WIRE 672 464 672 432
WIRE 672 464 496 464
WIRE 672 480 672 464
WIRE 256 544 256 528
FLAG 672 480 0
FLAG 256 544 0
SYMBOL npn 432 352 R0
SYMATTR InstName Q1
SYMATTR Value 2N3904
SYMBOL res 432 384 R90
WINDOW 0 0 56 VBottom 2
WINDOW 3 32 56 VTop 2
SYMATTR InstName R1
SYMATTR Value 100k
SYMBOL res 608 304 R90
WINDOW 0 0 56 VBottom 2
WINDOW 3 32 56 VTop 2
SYMATTR InstName R2
SYMATTR Value 4.7Meg
SYMBOL voltage 672 336 R0
SYMATTR InstName V1
SYMATTR Value 3.3V
SYMBOL voltage 256 432 R0
SYMATTR InstName V2
SYMATTR Value PULSE(0V 3.3V 1m 10n 10n 1m 2m 1)
SYMBOL res 432 304 R90
WINDOW 0 0 56 VBottom 2
WINDOW 3 32 56 VTop 2
SYMATTR InstName R3
SYMATTR Value 100k
TEXT 272 224 Left 2 !.tran 0 2m 0 10n
